@<TRIPOS>MOLECULE
ZINC000126204226
26    27    1     0     0
SMALL
USER_CHARGES
@<TRIPOS>ATOM
1      N1      3.3523    4.5174   -0.0070 N.1      1 ZINC000126204226   -0.3900
2      C2      2.3805    3.9291   -0.0005 C.1      1 ZINC000126204226    0.2500
3      C3      1.1555    3.1875    0.0077 C.ar     1 ZINC000126204226    0.0100
4      C4     -0.0704    3.8565    0.0225 C.ar     1 ZINC000126204226   -0.1000
5      C5     -1.2478    3.1354    0.0299 C.ar     1 ZINC000126204226    0.1000
6      F6     -2.4333    3.7831    0.0442 F        1 ZINC000126204226   -0.1300
7      C7     -1.2185    1.7489    0.0173 C.ar     1 ZINC000126204226   -0.1200
8      C8     -0.0126    1.0758    0.0080 C.ar     1 ZINC000126204226   -0.0800
9      C9      1.1800    1.7847    0.0004 C.ar     1 ZINC000126204226    0.1900
10     N10     2.3984    1.1055   -0.0140 N.am     1 ZINC000126204226   -0.6000
11     C11     3.1356    0.7017    1.1891 C.3      1 ZINC000126204226    0.1300
12     C12     4.1459   -0.3675    0.7116 C.3      1 ZINC000126204226   -0.1600
13     H13     3.7322   -1.3715    0.8063 H        1 ZINC000126204226    0.0900
14     C14     5.4462   -0.2498    1.4643 C.2      1 ZINC000126204226    0.5000
15     O15     6.4616    0.0851    0.8783 O.co2    1 ZINC000126204226   -0.6800
16     O16     5.4828   -0.4896    2.6591 O.co2    1 ZINC000126204226   -0.6900
17     C17     4.3300    0.0172   -0.7747 C.3      1 ZINC000126204226   -0.1300
18     C18     3.0509    0.7419   -1.1315 C.2      1 ZINC000126204226    0.5300
19     O19     2.6698    0.9629   -2.2615 O.2      1 ZINC000126204226   -0.5300
20     H20    -0.0973    4.9362    0.0279 H        1 ZINC000126204226    0.1500
21     H21    -2.1440    1.1923    0.0187 H        1 ZINC000126204226    0.1500
22     H22     0.0021   -0.0041    0.0020 H        1 ZINC000126204226    0.1500
23     H23     3.6603    1.5570    1.6148 H        1 ZINC000126204226    0.0700
24     H24     2.4534    0.2731    1.9234 H        1 ZINC000126204226    0.0800
25     H25     4.4464   -0.8760   -1.3884 H        1 ZINC000126204226    0.1000
26     H26     5.1888    0.6778   -0.8942 H        1 ZINC000126204226    0.1200
@<TRIPOS>BOND
1     1     2     3
2     2     3     1
3     3     9     ar
4     3     4     ar
5     4     5     ar
6     4     20    1
7     5     6     1
8     5     7     ar
9     7     8     ar
10    7     21    1
11    8     9     ar
12    8     22    1
13    9     10    1
14    10    18    am
15    10    11    1
16    11    12    1
17    11    23    1
18    11    24    1
19    12    13    1
20    12    14    1
21    12    17    1
22    14    15    ar
23    14    16    ar
24    17    18    1
25    17    25    1
26    17    26    1
27    18    19    2
@<TRIPOS>SUBSTRUCTURE
1   ZINC000126204226 1     RESIDUE    1   A     ZIN   1
