REMARK  2 active torsions:
REMARK  status: ('A' for Active; 'I' for Inactive)
REMARK    1  A    between atoms: C9_9  and  N10_10 
REMARK    2  A    between atoms: C12_12  and  C14_13 
ROOT
ATOM      1  N1  ZIN A   1       3.352   4.517  -0.007  0.00  0.00    -0.390 NA
ATOM      2  C2  ZIN A   1       2.381   3.929  -0.001  0.00  0.00     0.250 C 
ATOM      3  C3  ZIN A   1       1.155   3.188   0.008  0.00  0.00     0.010 A 
ATOM      4  C4  ZIN A   1      -0.070   3.857   0.022  0.00  0.00     0.050 A 
ATOM      5  C5  ZIN A   1      -1.248   3.135   0.030  0.00  0.00     0.100 A 
ATOM      6  F6  ZIN A   1      -2.433   3.783   0.044  0.00  0.00    -0.130 F 
ATOM      7  C7  ZIN A   1      -1.218   1.749   0.017  0.00  0.00     0.030 A 
ATOM      8  C8  ZIN A   1      -0.013   1.076   0.008  0.00  0.00     0.070 A 
ATOM      9  C9  ZIN A   1       1.180   1.785   0.000  0.00  0.00     0.190 A 
ENDROOT
BRANCH   9  10
ATOM     10  N10 ZIN A   1       2.398   1.105  -0.014  0.00  0.00    -0.600 N 
ATOM     11  C18 ZIN A   1       3.051   0.742  -1.131  0.00  0.00     0.530 C 
ATOM     12  C17 ZIN A   1       4.330   0.017  -0.775  0.00  0.00     0.090 C 
ATOM     13  O19 ZIN A   1       2.670   0.963  -2.261  0.00  0.00    -0.530 OA
ATOM     14  C12 ZIN A   1       4.146  -0.367   0.712  0.00  0.00    -0.070 C 
ATOM     15  C11 ZIN A   1       3.136   0.702   1.189  0.00  0.00     0.280 C 
BRANCH  14  16
ATOM     16  C14 ZIN A   1       5.446  -0.250   1.464  0.00  0.00     0.500 C 
ATOM     17  O15 ZIN A   1       6.462   0.085   0.878  0.00  0.00    -0.680 OA
ATOM     18  O16 ZIN A   1       5.483  -0.490   2.659  0.00  0.00    -0.690 OA
ENDBRANCH  14  16
ENDBRANCH   9  10
TORSDOF 2
