REMARK  2 active torsions:
REMARK  status: ('A' for Active; 'I' for Inactive)
REMARK    1  A    between atoms: C9_9  and  N10_10 
REMARK    2  A    between atoms: C12_14  and  C14_16 
ROOT
ATOM      1  N1  ZIN A   1      11.863  99.422  53.469  0.00  0.00    -0.390 NA
ATOM      2  C2  ZIN A   1      11.709  99.272  54.583  0.00  0.00     0.250 C 
ATOM      3  C3  ZIN A   1      11.512  99.085  55.990  0.00  0.00     0.010 A 
ATOM      4  C4  ZIN A   1      10.280  98.642  56.474  0.00  0.00     0.050 A 
ATOM      5  C5  ZIN A   1      10.098  98.463  57.832  0.00  0.00     0.100 A 
ATOM      6  F6  ZIN A   1       8.906  98.034  58.299  0.00  0.00    -0.130 F 
ATOM      7  C7  ZIN A   1      11.137  98.715  58.715  0.00  0.00     0.030 A 
ATOM      8  C8  ZIN A   1      12.358  99.159  58.249  0.00  0.00     0.070 A 
ATOM      9  C9  ZIN A   1      12.558  99.344  56.888  0.00  0.00     0.190 A 
ENDROOT
BRANCH   9  10
ATOM     10  N10 ZIN A   1      13.794  99.787  56.416  0.00  0.00    -0.600 N 
ATOM     11  C18 ZIN A   1      14.977  99.265  56.782  0.00  0.00     0.530 C 
ATOM     12  C17 ZIN A   1      16.106  99.992  56.086  0.00  0.00     0.090 C 
ATOM     13  O19 ZIN A   1      15.119  98.345  57.559  0.00  0.00    -0.530 OA
ATOM     14  C12 ZIN A   1      15.454 101.296  55.567  0.00  0.00    -0.070 C 
ATOM     15  C11 ZIN A   1      13.970 100.878  55.450  0.00  0.00     0.280 C 
BRANCH  14  16
ATOM     16  C14 ZIN A   1      16.011 101.679  54.221  0.00  0.00     0.500 C 
ATOM     17  O15 ZIN A   1      17.150 101.363  53.920  0.00  0.00    -0.680 OA
ATOM     18  O16 ZIN A   1      15.323 102.306  53.433  0.00  0.00    -0.690 OA
ENDBRANCH  14  16
ENDBRANCH   9  10
TORSDOF 2
